* NGSPICE file created from user_project_wrapper.ext - technology: sky130B

* Black-box entry subcircuit for tile abstract view
.subckt tile buffer_processor_data_noc1[0] buffer_processor_data_noc1[10] buffer_processor_data_noc1[11]
+ buffer_processor_data_noc1[12] buffer_processor_data_noc1[13] buffer_processor_data_noc1[14]
+ buffer_processor_data_noc1[15] buffer_processor_data_noc1[16] buffer_processor_data_noc1[17]
+ buffer_processor_data_noc1[18] buffer_processor_data_noc1[19] buffer_processor_data_noc1[1]
+ buffer_processor_data_noc1[20] buffer_processor_data_noc1[21] buffer_processor_data_noc1[22]
+ buffer_processor_data_noc1[23] buffer_processor_data_noc1[24] buffer_processor_data_noc1[25]
+ buffer_processor_data_noc1[26] buffer_processor_data_noc1[27] buffer_processor_data_noc1[28]
+ buffer_processor_data_noc1[29] buffer_processor_data_noc1[2] buffer_processor_data_noc1[30]
+ buffer_processor_data_noc1[31] buffer_processor_data_noc1[32] buffer_processor_data_noc1[33]
+ buffer_processor_data_noc1[34] buffer_processor_data_noc1[35] buffer_processor_data_noc1[36]
+ buffer_processor_data_noc1[37] buffer_processor_data_noc1[38] buffer_processor_data_noc1[39]
+ buffer_processor_data_noc1[3] buffer_processor_data_noc1[40] buffer_processor_data_noc1[41]
+ buffer_processor_data_noc1[42] buffer_processor_data_noc1[43] buffer_processor_data_noc1[44]
+ buffer_processor_data_noc1[45] buffer_processor_data_noc1[46] buffer_processor_data_noc1[47]
+ buffer_processor_data_noc1[48] buffer_processor_data_noc1[49] buffer_processor_data_noc1[4]
+ buffer_processor_data_noc1[50] buffer_processor_data_noc1[51] buffer_processor_data_noc1[52]
+ buffer_processor_data_noc1[53] buffer_processor_data_noc1[54] buffer_processor_data_noc1[55]
+ buffer_processor_data_noc1[56] buffer_processor_data_noc1[57] buffer_processor_data_noc1[58]
+ buffer_processor_data_noc1[59] buffer_processor_data_noc1[5] buffer_processor_data_noc1[60]
+ buffer_processor_data_noc1[61] buffer_processor_data_noc1[62] buffer_processor_data_noc1[63]
+ buffer_processor_data_noc1[6] buffer_processor_data_noc1[7] buffer_processor_data_noc1[8]
+ buffer_processor_data_noc1[9] buffer_processor_data_noc3[0] buffer_processor_data_noc3[10]
+ buffer_processor_data_noc3[11] buffer_processor_data_noc3[12] buffer_processor_data_noc3[13]
+ buffer_processor_data_noc3[14] buffer_processor_data_noc3[15] buffer_processor_data_noc3[16]
+ buffer_processor_data_noc3[17] buffer_processor_data_noc3[18] buffer_processor_data_noc3[19]
+ buffer_processor_data_noc3[1] buffer_processor_data_noc3[20] buffer_processor_data_noc3[21]
+ buffer_processor_data_noc3[22] buffer_processor_data_noc3[23] buffer_processor_data_noc3[24]
+ buffer_processor_data_noc3[25] buffer_processor_data_noc3[26] buffer_processor_data_noc3[27]
+ buffer_processor_data_noc3[28] buffer_processor_data_noc3[29] buffer_processor_data_noc3[2]
+ buffer_processor_data_noc3[30] buffer_processor_data_noc3[31] buffer_processor_data_noc3[32]
+ buffer_processor_data_noc3[33] buffer_processor_data_noc3[34] buffer_processor_data_noc3[35]
+ buffer_processor_data_noc3[36] buffer_processor_data_noc3[37] buffer_processor_data_noc3[38]
+ buffer_processor_data_noc3[39] buffer_processor_data_noc3[3] buffer_processor_data_noc3[40]
+ buffer_processor_data_noc3[41] buffer_processor_data_noc3[42] buffer_processor_data_noc3[43]
+ buffer_processor_data_noc3[44] buffer_processor_data_noc3[45] buffer_processor_data_noc3[46]
+ buffer_processor_data_noc3[47] buffer_processor_data_noc3[48] buffer_processor_data_noc3[49]
+ buffer_processor_data_noc3[4] buffer_processor_data_noc3[50] buffer_processor_data_noc3[51]
+ buffer_processor_data_noc3[52] buffer_processor_data_noc3[53] buffer_processor_data_noc3[54]
+ buffer_processor_data_noc3[55] buffer_processor_data_noc3[56] buffer_processor_data_noc3[57]
+ buffer_processor_data_noc3[58] buffer_processor_data_noc3[59] buffer_processor_data_noc3[5]
+ buffer_processor_data_noc3[60] buffer_processor_data_noc3[61] buffer_processor_data_noc3[62]
+ buffer_processor_data_noc3[63] buffer_processor_data_noc3[6] buffer_processor_data_noc3[7]
+ buffer_processor_data_noc3[8] buffer_processor_data_noc3[9] buffer_processor_valid_noc1
+ buffer_processor_valid_noc3 chipid[0] chipid[10] chipid[11] chipid[12] chipid[13]
+ chipid[1] chipid[2] chipid[3] chipid[4] chipid[5] chipid[6] chipid[7] chipid[8]
+ chipid[9] clk clk_en config_chipid[0] config_chipid[10] config_chipid[11] config_chipid[12]
+ config_chipid[13] config_chipid[1] config_chipid[2] config_chipid[3] config_chipid[4]
+ config_chipid[5] config_chipid[6] config_chipid[7] config_chipid[8] config_chipid[9]
+ config_coreid_x[0] config_coreid_x[1] config_coreid_x[2] config_coreid_x[3] config_coreid_x[4]
+ config_coreid_x[5] config_coreid_x[6] config_coreid_x[7] config_coreid_y[0] config_coreid_y[1]
+ config_coreid_y[2] config_coreid_y[3] config_coreid_y[4] config_coreid_y[5] config_coreid_y[6]
+ config_coreid_y[7] config_csm_en config_hmt_base[0] config_hmt_base[10] config_hmt_base[11]
+ config_hmt_base[12] config_hmt_base[13] config_hmt_base[14] config_hmt_base[15]
+ config_hmt_base[16] config_hmt_base[17] config_hmt_base[18] config_hmt_base[19]
+ config_hmt_base[1] config_hmt_base[20] config_hmt_base[21] config_hmt_base[2] config_hmt_base[3]
+ config_hmt_base[4] config_hmt_base[5] config_hmt_base[6] config_hmt_base[7] config_hmt_base[8]
+ config_hmt_base[9] config_home_alloc_method[0] config_home_alloc_method[1] config_l15_read_res_data_s3[0]
+ config_l15_read_res_data_s3[10] config_l15_read_res_data_s3[11] config_l15_read_res_data_s3[12]
+ config_l15_read_res_data_s3[13] config_l15_read_res_data_s3[14] config_l15_read_res_data_s3[15]
+ config_l15_read_res_data_s3[16] config_l15_read_res_data_s3[17] config_l15_read_res_data_s3[18]
+ config_l15_read_res_data_s3[19] config_l15_read_res_data_s3[1] config_l15_read_res_data_s3[20]
+ config_l15_read_res_data_s3[21] config_l15_read_res_data_s3[22] config_l15_read_res_data_s3[23]
+ config_l15_read_res_data_s3[24] config_l15_read_res_data_s3[25] config_l15_read_res_data_s3[26]
+ config_l15_read_res_data_s3[27] config_l15_read_res_data_s3[28] config_l15_read_res_data_s3[29]
+ config_l15_read_res_data_s3[2] config_l15_read_res_data_s3[30] config_l15_read_res_data_s3[31]
+ config_l15_read_res_data_s3[32] config_l15_read_res_data_s3[33] config_l15_read_res_data_s3[34]
+ config_l15_read_res_data_s3[35] config_l15_read_res_data_s3[36] config_l15_read_res_data_s3[37]
+ config_l15_read_res_data_s3[38] config_l15_read_res_data_s3[39] config_l15_read_res_data_s3[3]
+ config_l15_read_res_data_s3[40] config_l15_read_res_data_s3[41] config_l15_read_res_data_s3[42]
+ config_l15_read_res_data_s3[43] config_l15_read_res_data_s3[44] config_l15_read_res_data_s3[45]
+ config_l15_read_res_data_s3[46] config_l15_read_res_data_s3[47] config_l15_read_res_data_s3[48]
+ config_l15_read_res_data_s3[49] config_l15_read_res_data_s3[4] config_l15_read_res_data_s3[50]
+ config_l15_read_res_data_s3[51] config_l15_read_res_data_s3[52] config_l15_read_res_data_s3[53]
+ config_l15_read_res_data_s3[54] config_l15_read_res_data_s3[55] config_l15_read_res_data_s3[56]
+ config_l15_read_res_data_s3[57] config_l15_read_res_data_s3[58] config_l15_read_res_data_s3[59]
+ config_l15_read_res_data_s3[5] config_l15_read_res_data_s3[60] config_l15_read_res_data_s3[61]
+ config_l15_read_res_data_s3[62] config_l15_read_res_data_s3[63] config_l15_read_res_data_s3[6]
+ config_l15_read_res_data_s3[7] config_l15_read_res_data_s3[8] config_l15_read_res_data_s3[9]
+ config_system_tile_count_5_0[0] config_system_tile_count_5_0[1] config_system_tile_count_5_0[2]
+ config_system_tile_count_5_0[3] config_system_tile_count_5_0[4] config_system_tile_count_5_0[5]
+ coreid_x[0] coreid_x[1] coreid_x[2] coreid_x[3] coreid_x[4] coreid_x[5] coreid_x[6]
+ coreid_x[7] coreid_y[0] coreid_y[1] coreid_y[2] coreid_y[3] coreid_y[4] coreid_y[5]
+ coreid_y[6] coreid_y[7] default_chipid[0] default_chipid[10] default_chipid[11]
+ default_chipid[12] default_chipid[13] default_chipid[1] default_chipid[2] default_chipid[3]
+ default_chipid[4] default_chipid[5] default_chipid[6] default_chipid[7] default_chipid[8]
+ default_chipid[9] default_coreid_x[0] default_coreid_x[1] default_coreid_x[2] default_coreid_x[3]
+ default_coreid_x[4] default_coreid_x[5] default_coreid_x[6] default_coreid_x[7]
+ default_coreid_y[0] default_coreid_y[1] default_coreid_y[2] default_coreid_y[3]
+ default_coreid_y[4] default_coreid_y[5] default_coreid_y[6] default_coreid_y[7]
+ dmbr_l15_stall dummy_core[0] dummy_core[10] dummy_core[11] dummy_core[12] dummy_core[13]
+ dummy_core[14] dummy_core[15] dummy_core[16] dummy_core[17] dummy_core[18] dummy_core[19]
+ dummy_core[1] dummy_core[20] dummy_core[21] dummy_core[22] dummy_core[23] dummy_core[24]
+ dummy_core[25] dummy_core[26] dummy_core[27] dummy_core[28] dummy_core[29] dummy_core[2]
+ dummy_core[30] dummy_core[31] dummy_core[3] dummy_core[4] dummy_core[5] dummy_core[6]
+ dummy_core[7] dummy_core[8] dummy_core[9] dyn0_dEo[0] dyn0_dEo[10] dyn0_dEo[11]
+ dyn0_dEo[12] dyn0_dEo[13] dyn0_dEo[14] dyn0_dEo[15] dyn0_dEo[16] dyn0_dEo[17] dyn0_dEo[18]
+ dyn0_dEo[19] dyn0_dEo[1] dyn0_dEo[20] dyn0_dEo[21] dyn0_dEo[22] dyn0_dEo[23] dyn0_dEo[24]
+ dyn0_dEo[25] dyn0_dEo[26] dyn0_dEo[27] dyn0_dEo[28] dyn0_dEo[29] dyn0_dEo[2] dyn0_dEo[30]
+ dyn0_dEo[31] dyn0_dEo[32] dyn0_dEo[33] dyn0_dEo[34] dyn0_dEo[35] dyn0_dEo[36] dyn0_dEo[37]
+ dyn0_dEo[38] dyn0_dEo[39] dyn0_dEo[3] dyn0_dEo[40] dyn0_dEo[41] dyn0_dEo[42] dyn0_dEo[43]
+ dyn0_dEo[44] dyn0_dEo[45] dyn0_dEo[46] dyn0_dEo[47] dyn0_dEo[48] dyn0_dEo[49] dyn0_dEo[4]
+ dyn0_dEo[50] dyn0_dEo[51] dyn0_dEo[52] dyn0_dEo[53] dyn0_dEo[54] dyn0_dEo[55] dyn0_dEo[56]
+ dyn0_dEo[57] dyn0_dEo[58] dyn0_dEo[59] dyn0_dEo[5] dyn0_dEo[60] dyn0_dEo[61] dyn0_dEo[62]
+ dyn0_dEo[63] dyn0_dEo[6] dyn0_dEo[7] dyn0_dEo[8] dyn0_dEo[9] dyn0_dEo_valid dyn0_dEo_yummy
+ dyn0_dNo[0] dyn0_dNo[10] dyn0_dNo[11] dyn0_dNo[12] dyn0_dNo[13] dyn0_dNo[14] dyn0_dNo[15]
+ dyn0_dNo[16] dyn0_dNo[17] dyn0_dNo[18] dyn0_dNo[19] dyn0_dNo[1] dyn0_dNo[20] dyn0_dNo[21]
+ dyn0_dNo[22] dyn0_dNo[23] dyn0_dNo[24] dyn0_dNo[25] dyn0_dNo[26] dyn0_dNo[27] dyn0_dNo[28]
+ dyn0_dNo[29] dyn0_dNo[2] dyn0_dNo[30] dyn0_dNo[31] dyn0_dNo[32] dyn0_dNo[33] dyn0_dNo[34]
+ dyn0_dNo[35] dyn0_dNo[36] dyn0_dNo[37] dyn0_dNo[38] dyn0_dNo[39] dyn0_dNo[3] dyn0_dNo[40]
+ dyn0_dNo[41] dyn0_dNo[42] dyn0_dNo[43] dyn0_dNo[44] dyn0_dNo[45] dyn0_dNo[46] dyn0_dNo[47]
+ dyn0_dNo[48] dyn0_dNo[49] dyn0_dNo[4] dyn0_dNo[50] dyn0_dNo[51] dyn0_dNo[52] dyn0_dNo[53]
+ dyn0_dNo[54] dyn0_dNo[55] dyn0_dNo[56] dyn0_dNo[57] dyn0_dNo[58] dyn0_dNo[59] dyn0_dNo[5]
+ dyn0_dNo[60] dyn0_dNo[61] dyn0_dNo[62] dyn0_dNo[63] dyn0_dNo[6] dyn0_dNo[7] dyn0_dNo[8]
+ dyn0_dNo[9] dyn0_dNo_valid dyn0_dNo_yummy dyn0_dSo[0] dyn0_dSo[10] dyn0_dSo[11]
+ dyn0_dSo[12] dyn0_dSo[13] dyn0_dSo[14] dyn0_dSo[15] dyn0_dSo[16] dyn0_dSo[17] dyn0_dSo[18]
+ dyn0_dSo[19] dyn0_dSo[1] dyn0_dSo[20] dyn0_dSo[21] dyn0_dSo[22] dyn0_dSo[23] dyn0_dSo[24]
+ dyn0_dSo[25] dyn0_dSo[26] dyn0_dSo[27] dyn0_dSo[28] dyn0_dSo[29] dyn0_dSo[2] dyn0_dSo[30]
+ dyn0_dSo[31] dyn0_dSo[32] dyn0_dSo[33] dyn0_dSo[34] dyn0_dSo[35] dyn0_dSo[36] dyn0_dSo[37]
+ dyn0_dSo[38] dyn0_dSo[39] dyn0_dSo[3] dyn0_dSo[40] dyn0_dSo[41] dyn0_dSo[42] dyn0_dSo[43]
+ dyn0_dSo[44] dyn0_dSo[45] dyn0_dSo[46] dyn0_dSo[47] dyn0_dSo[48] dyn0_dSo[49] dyn0_dSo[4]
+ dyn0_dSo[50] dyn0_dSo[51] dyn0_dSo[52] dyn0_dSo[53] dyn0_dSo[54] dyn0_dSo[55] dyn0_dSo[56]
+ dyn0_dSo[57] dyn0_dSo[58] dyn0_dSo[59] dyn0_dSo[5] dyn0_dSo[60] dyn0_dSo[61] dyn0_dSo[62]
+ dyn0_dSo[63] dyn0_dSo[6] dyn0_dSo[7] dyn0_dSo[8] dyn0_dSo[9] dyn0_dSo_valid dyn0_dSo_yummy
+ dyn0_dWo[0] dyn0_dWo[10] dyn0_dWo[11] dyn0_dWo[12] dyn0_dWo[13] dyn0_dWo[14] dyn0_dWo[15]
+ dyn0_dWo[16] dyn0_dWo[17] dyn0_dWo[18] dyn0_dWo[19] dyn0_dWo[1] dyn0_dWo[20] dyn0_dWo[21]
+ dyn0_dWo[22] dyn0_dWo[23] dyn0_dWo[24] dyn0_dWo[25] dyn0_dWo[26] dyn0_dWo[27] dyn0_dWo[28]
+ dyn0_dWo[29] dyn0_dWo[2] dyn0_dWo[30] dyn0_dWo[31] dyn0_dWo[32] dyn0_dWo[33] dyn0_dWo[34]
+ dyn0_dWo[35] dyn0_dWo[36] dyn0_dWo[37] dyn0_dWo[38] dyn0_dWo[39] dyn0_dWo[3] dyn0_dWo[40]
+ dyn0_dWo[41] dyn0_dWo[42] dyn0_dWo[43] dyn0_dWo[44] dyn0_dWo[45] dyn0_dWo[46] dyn0_dWo[47]
+ dyn0_dWo[48] dyn0_dWo[49] dyn0_dWo[4] dyn0_dWo[50] dyn0_dWo[51] dyn0_dWo[52] dyn0_dWo[53]
+ dyn0_dWo[54] dyn0_dWo[55] dyn0_dWo[56] dyn0_dWo[57] dyn0_dWo[58] dyn0_dWo[59] dyn0_dWo[5]
+ dyn0_dWo[60] dyn0_dWo[61] dyn0_dWo[62] dyn0_dWo[63] dyn0_dWo[6] dyn0_dWo[7] dyn0_dWo[8]
+ dyn0_dWo[9] dyn0_dWo_valid dyn0_dWo_yummy dyn0_dataIn_E[0] dyn0_dataIn_E[10] dyn0_dataIn_E[11]
+ dyn0_dataIn_E[12] dyn0_dataIn_E[13] dyn0_dataIn_E[14] dyn0_dataIn_E[15] dyn0_dataIn_E[16]
+ dyn0_dataIn_E[17] dyn0_dataIn_E[18] dyn0_dataIn_E[19] dyn0_dataIn_E[1] dyn0_dataIn_E[20]
+ dyn0_dataIn_E[21] dyn0_dataIn_E[22] dyn0_dataIn_E[23] dyn0_dataIn_E[24] dyn0_dataIn_E[25]
+ dyn0_dataIn_E[26] dyn0_dataIn_E[27] dyn0_dataIn_E[28] dyn0_dataIn_E[29] dyn0_dataIn_E[2]
+ dyn0_dataIn_E[30] dyn0_dataIn_E[31] dyn0_dataIn_E[32] dyn0_dataIn_E[33] dyn0_dataIn_E[34]
+ dyn0_dataIn_E[35] dyn0_dataIn_E[36] dyn0_dataIn_E[37] dyn0_dataIn_E[38] dyn0_dataIn_E[39]
+ dyn0_dataIn_E[3] dyn0_dataIn_E[40] dyn0_dataIn_E[41] dyn0_dataIn_E[42] dyn0_dataIn_E[43]
+ dyn0_dataIn_E[44] dyn0_dataIn_E[45] dyn0_dataIn_E[46] dyn0_dataIn_E[47] dyn0_dataIn_E[48]
+ dyn0_dataIn_E[49] dyn0_dataIn_E[4] dyn0_dataIn_E[50] dyn0_dataIn_E[51] dyn0_dataIn_E[52]
+ dyn0_dataIn_E[53] dyn0_dataIn_E[54] dyn0_dataIn_E[55] dyn0_dataIn_E[56] dyn0_dataIn_E[57]
+ dyn0_dataIn_E[58] dyn0_dataIn_E[59] dyn0_dataIn_E[5] dyn0_dataIn_E[60] dyn0_dataIn_E[61]
+ dyn0_dataIn_E[62] dyn0_dataIn_E[63] dyn0_dataIn_E[6] dyn0_dataIn_E[7] dyn0_dataIn_E[8]
+ dyn0_dataIn_E[9] dyn0_dataIn_N[0] dyn0_dataIn_N[10] dyn0_dataIn_N[11] dyn0_dataIn_N[12]
+ dyn0_dataIn_N[13] dyn0_dataIn_N[14] dyn0_dataIn_N[15] dyn0_dataIn_N[16] dyn0_dataIn_N[17]
+ dyn0_dataIn_N[18] dyn0_dataIn_N[19] dyn0_dataIn_N[1] dyn0_dataIn_N[20] dyn0_dataIn_N[21]
+ dyn0_dataIn_N[22] dyn0_dataIn_N[23] dyn0_dataIn_N[24] dyn0_dataIn_N[25] dyn0_dataIn_N[26]
+ dyn0_dataIn_N[27] dyn0_dataIn_N[28] dyn0_dataIn_N[29] dyn0_dataIn_N[2] dyn0_dataIn_N[30]
+ dyn0_dataIn_N[31] dyn0_dataIn_N[32] dyn0_dataIn_N[33] dyn0_dataIn_N[34] dyn0_dataIn_N[35]
+ dyn0_dataIn_N[36] dyn0_dataIn_N[37] dyn0_dataIn_N[38] dyn0_dataIn_N[39] dyn0_dataIn_N[3]
+ dyn0_dataIn_N[40] dyn0_dataIn_N[41] dyn0_dataIn_N[42] dyn0_dataIn_N[43] dyn0_dataIn_N[44]
+ dyn0_dataIn_N[45] dyn0_dataIn_N[46] dyn0_dataIn_N[47] dyn0_dataIn_N[48] dyn0_dataIn_N[49]
+ dyn0_dataIn_N[4] dyn0_dataIn_N[50] dyn0_dataIn_N[51] dyn0_dataIn_N[52] dyn0_dataIn_N[53]
+ dyn0_dataIn_N[54] dyn0_dataIn_N[55] dyn0_dataIn_N[56] dyn0_dataIn_N[57] dyn0_dataIn_N[58]
+ dyn0_dataIn_N[59] dyn0_dataIn_N[5] dyn0_dataIn_N[60] dyn0_dataIn_N[61] dyn0_dataIn_N[62]
+ dyn0_dataIn_N[63] dyn0_dataIn_N[6] dyn0_dataIn_N[7] dyn0_dataIn_N[8] dyn0_dataIn_N[9]
+ dyn0_dataIn_S[0] dyn0_dataIn_S[10] dyn0_dataIn_S[11] dyn0_dataIn_S[12] dyn0_dataIn_S[13]
+ dyn0_dataIn_S[14] dyn0_dataIn_S[15] dyn0_dataIn_S[16] dyn0_dataIn_S[17] dyn0_dataIn_S[18]
+ dyn0_dataIn_S[19] dyn0_dataIn_S[1] dyn0_dataIn_S[20] dyn0_dataIn_S[21] dyn0_dataIn_S[22]
+ dyn0_dataIn_S[23] dyn0_dataIn_S[24] dyn0_dataIn_S[25] dyn0_dataIn_S[26] dyn0_dataIn_S[27]
+ dyn0_dataIn_S[28] dyn0_dataIn_S[29] dyn0_dataIn_S[2] dyn0_dataIn_S[30] dyn0_dataIn_S[31]
+ dyn0_dataIn_S[32] dyn0_dataIn_S[33] dyn0_dataIn_S[34] dyn0_dataIn_S[35] dyn0_dataIn_S[36]
+ dyn0_dataIn_S[37] dyn0_dataIn_S[38] dyn0_dataIn_S[39] dyn0_dataIn_S[3] dyn0_dataIn_S[40]
+ dyn0_dataIn_S[41] dyn0_dataIn_S[42] dyn0_dataIn_S[43] dyn0_dataIn_S[44] dyn0_dataIn_S[45]
+ dyn0_dataIn_S[46] dyn0_dataIn_S[47] dyn0_dataIn_S[48] dyn0_dataIn_S[49] dyn0_dataIn_S[4]
+ dyn0_dataIn_S[50] dyn0_dataIn_S[51] dyn0_dataIn_S[52] dyn0_dataIn_S[53] dyn0_dataIn_S[54]
+ dyn0_dataIn_S[55] dyn0_dataIn_S[56] dyn0_dataIn_S[57] dyn0_dataIn_S[58] dyn0_dataIn_S[59]
+ dyn0_dataIn_S[5] dyn0_dataIn_S[60] dyn0_dataIn_S[61] dyn0_dataIn_S[62] dyn0_dataIn_S[63]
+ dyn0_dataIn_S[6] dyn0_dataIn_S[7] dyn0_dataIn_S[8] dyn0_dataIn_S[9] dyn0_dataIn_W[0]
+ dyn0_dataIn_W[10] dyn0_dataIn_W[11] dyn0_dataIn_W[12] dyn0_dataIn_W[13] dyn0_dataIn_W[14]
+ dyn0_dataIn_W[15] dyn0_dataIn_W[16] dyn0_dataIn_W[17] dyn0_dataIn_W[18] dyn0_dataIn_W[19]
+ dyn0_dataIn_W[1] dyn0_dataIn_W[20] dyn0_dataIn_W[21] dyn0_dataIn_W[22] dyn0_dataIn_W[23]
+ dyn0_dataIn_W[24] dyn0_dataIn_W[25] dyn0_dataIn_W[26] dyn0_dataIn_W[27] dyn0_dataIn_W[28]
+ dyn0_dataIn_W[29] dyn0_dataIn_W[2] dyn0_dataIn_W[30] dyn0_dataIn_W[31] dyn0_dataIn_W[32]
+ dyn0_dataIn_W[33] dyn0_dataIn_W[34] dyn0_dataIn_W[35] dyn0_dataIn_W[36] dyn0_dataIn_W[37]
+ dyn0_dataIn_W[38] dyn0_dataIn_W[39] dyn0_dataIn_W[3] dyn0_dataIn_W[40] dyn0_dataIn_W[41]
+ dyn0_dataIn_W[42] dyn0_dataIn_W[43] dyn0_dataIn_W[44] dyn0_dataIn_W[45] dyn0_dataIn_W[46]
+ dyn0_dataIn_W[47] dyn0_dataIn_W[48] dyn0_dataIn_W[49] dyn0_dataIn_W[4] dyn0_dataIn_W[50]
+ dyn0_dataIn_W[51] dyn0_dataIn_W[52] dyn0_dataIn_W[53] dyn0_dataIn_W[54] dyn0_dataIn_W[55]
+ dyn0_dataIn_W[56] dyn0_dataIn_W[57] dyn0_dataIn_W[58] dyn0_dataIn_W[59] dyn0_dataIn_W[5]
+ dyn0_dataIn_W[60] dyn0_dataIn_W[61] dyn0_dataIn_W[62] dyn0_dataIn_W[63] dyn0_dataIn_W[6]
+ dyn0_dataIn_W[7] dyn0_dataIn_W[8] dyn0_dataIn_W[9] dyn0_validIn_E dyn0_validIn_N
+ dyn0_validIn_S dyn0_validIn_W dyn0_yummyOut_E dyn0_yummyOut_N dyn0_yummyOut_S dyn0_yummyOut_W
+ dyn1_dEo[0] dyn1_dEo[10] dyn1_dEo[11] dyn1_dEo[12] dyn1_dEo[13] dyn1_dEo[14] dyn1_dEo[15]
+ dyn1_dEo[16] dyn1_dEo[17] dyn1_dEo[18] dyn1_dEo[19] dyn1_dEo[1] dyn1_dEo[20] dyn1_dEo[21]
+ dyn1_dEo[22] dyn1_dEo[23] dyn1_dEo[24] dyn1_dEo[25] dyn1_dEo[26] dyn1_dEo[27] dyn1_dEo[28]
+ dyn1_dEo[29] dyn1_dEo[2] dyn1_dEo[30] dyn1_dEo[31] dyn1_dEo[32] dyn1_dEo[33] dyn1_dEo[34]
+ dyn1_dEo[35] dyn1_dEo[36] dyn1_dEo[37] dyn1_dEo[38] dyn1_dEo[39] dyn1_dEo[3] dyn1_dEo[40]
+ dyn1_dEo[41] dyn1_dEo[42] dyn1_dEo[43] dyn1_dEo[44] dyn1_dEo[45] dyn1_dEo[46] dyn1_dEo[47]
+ dyn1_dEo[48] dyn1_dEo[49] dyn1_dEo[4] dyn1_dEo[50] dyn1_dEo[51] dyn1_dEo[52] dyn1_dEo[53]
+ dyn1_dEo[54] dyn1_dEo[55] dyn1_dEo[56] dyn1_dEo[57] dyn1_dEo[58] dyn1_dEo[59] dyn1_dEo[5]
+ dyn1_dEo[60] dyn1_dEo[61] dyn1_dEo[62] dyn1_dEo[63] dyn1_dEo[6] dyn1_dEo[7] dyn1_dEo[8]
+ dyn1_dEo[9] dyn1_dEo_valid dyn1_dEo_yummy dyn1_dNo[0] dyn1_dNo[10] dyn1_dNo[11]
+ dyn1_dNo[12] dyn1_dNo[13] dyn1_dNo[14] dyn1_dNo[15] dyn1_dNo[16] dyn1_dNo[17] dyn1_dNo[18]
+ dyn1_dNo[19] dyn1_dNo[1] dyn1_dNo[20] dyn1_dNo[21] dyn1_dNo[22] dyn1_dNo[23] dyn1_dNo[24]
+ dyn1_dNo[25] dyn1_dNo[26] dyn1_dNo[27] dyn1_dNo[28] dyn1_dNo[29] dyn1_dNo[2] dyn1_dNo[30]
+ dyn1_dNo[31] dyn1_dNo[32] dyn1_dNo[33] dyn1_dNo[34] dyn1_dNo[35] dyn1_dNo[36] dyn1_dNo[37]
+ dyn1_dNo[38] dyn1_dNo[39] dyn1_dNo[3] dyn1_dNo[40] dyn1_dNo[41] dyn1_dNo[42] dyn1_dNo[43]
+ dyn1_dNo[44] dyn1_dNo[45] dyn1_dNo[46] dyn1_dNo[47] dyn1_dNo[48] dyn1_dNo[49] dyn1_dNo[4]
+ dyn1_dNo[50] dyn1_dNo[51] dyn1_dNo[52] dyn1_dNo[53] dyn1_dNo[54] dyn1_dNo[55] dyn1_dNo[56]
+ dyn1_dNo[57] dyn1_dNo[58] dyn1_dNo[59] dyn1_dNo[5] dyn1_dNo[60] dyn1_dNo[61] dyn1_dNo[62]
+ dyn1_dNo[63] dyn1_dNo[6] dyn1_dNo[7] dyn1_dNo[8] dyn1_dNo[9] dyn1_dNo_valid dyn1_dNo_yummy
+ dyn1_dSo[0] dyn1_dSo[10] dyn1_dSo[11] dyn1_dSo[12] dyn1_dSo[13] dyn1_dSo[14] dyn1_dSo[15]
+ dyn1_dSo[16] dyn1_dSo[17] dyn1_dSo[18] dyn1_dSo[19] dyn1_dSo[1] dyn1_dSo[20] dyn1_dSo[21]
+ dyn1_dSo[22] dyn1_dSo[23] dyn1_dSo[24] dyn1_dSo[25] dyn1_dSo[26] dyn1_dSo[27] dyn1_dSo[28]
+ dyn1_dSo[29] dyn1_dSo[2] dyn1_dSo[30] dyn1_dSo[31] dyn1_dSo[32] dyn1_dSo[33] dyn1_dSo[34]
+ dyn1_dSo[35] dyn1_dSo[36] dyn1_dSo[37] dyn1_dSo[38] dyn1_dSo[39] dyn1_dSo[3] dyn1_dSo[40]
+ dyn1_dSo[41] dyn1_dSo[42] dyn1_dSo[43] dyn1_dSo[44] dyn1_dSo[45] dyn1_dSo[46] dyn1_dSo[47]
+ dyn1_dSo[48] dyn1_dSo[49] dyn1_dSo[4] dyn1_dSo[50] dyn1_dSo[51] dyn1_dSo[52] dyn1_dSo[53]
+ dyn1_dSo[54] dyn1_dSo[55] dyn1_dSo[56] dyn1_dSo[57] dyn1_dSo[58] dyn1_dSo[59] dyn1_dSo[5]
+ dyn1_dSo[60] dyn1_dSo[61] dyn1_dSo[62] dyn1_dSo[63] dyn1_dSo[6] dyn1_dSo[7] dyn1_dSo[8]
+ dyn1_dSo[9] dyn1_dSo_valid dyn1_dSo_yummy dyn1_dWo[0] dyn1_dWo[10] dyn1_dWo[11]
+ dyn1_dWo[12] dyn1_dWo[13] dyn1_dWo[14] dyn1_dWo[15] dyn1_dWo[16] dyn1_dWo[17] dyn1_dWo[18]
+ dyn1_dWo[19] dyn1_dWo[1] dyn1_dWo[20] dyn1_dWo[21] dyn1_dWo[22] dyn1_dWo[23] dyn1_dWo[24]
+ dyn1_dWo[25] dyn1_dWo[26] dyn1_dWo[27] dyn1_dWo[28] dyn1_dWo[29] dyn1_dWo[2] dyn1_dWo[30]
+ dyn1_dWo[31] dyn1_dWo[32] dyn1_dWo[33] dyn1_dWo[34] dyn1_dWo[35] dyn1_dWo[36] dyn1_dWo[37]
+ dyn1_dWo[38] dyn1_dWo[39] dyn1_dWo[3] dyn1_dWo[40] dyn1_dWo[41] dyn1_dWo[42] dyn1_dWo[43]
+ dyn1_dWo[44] dyn1_dWo[45] dyn1_dWo[46] dyn1_dWo[47] dyn1_dWo[48] dyn1_dWo[49] dyn1_dWo[4]
+ dyn1_dWo[50] dyn1_dWo[51] dyn1_dWo[52] dyn1_dWo[53] dyn1_dWo[54] dyn1_dWo[55] dyn1_dWo[56]
+ dyn1_dWo[57] dyn1_dWo[58] dyn1_dWo[59] dyn1_dWo[5] dyn1_dWo[60] dyn1_dWo[61] dyn1_dWo[62]
+ dyn1_dWo[63] dyn1_dWo[6] dyn1_dWo[7] dyn1_dWo[8] dyn1_dWo[9] dyn1_dWo_valid dyn1_dWo_yummy
+ dyn1_dataIn_E[0] dyn1_dataIn_E[10] dyn1_dataIn_E[11] dyn1_dataIn_E[12] dyn1_dataIn_E[13]
+ dyn1_dataIn_E[14] dyn1_dataIn_E[15] dyn1_dataIn_E[16] dyn1_dataIn_E[17] dyn1_dataIn_E[18]
+ dyn1_dataIn_E[19] dyn1_dataIn_E[1] dyn1_dataIn_E[20] dyn1_dataIn_E[21] dyn1_dataIn_E[22]
+ dyn1_dataIn_E[23] dyn1_dataIn_E[24] dyn1_dataIn_E[25] dyn1_dataIn_E[26] dyn1_dataIn_E[27]
+ dyn1_dataIn_E[28] dyn1_dataIn_E[29] dyn1_dataIn_E[2] dyn1_dataIn_E[30] dyn1_dataIn_E[31]
+ dyn1_dataIn_E[32] dyn1_dataIn_E[33] dyn1_dataIn_E[34] dyn1_dataIn_E[35] dyn1_dataIn_E[36]
+ dyn1_dataIn_E[37] dyn1_dataIn_E[38] dyn1_dataIn_E[39] dyn1_dataIn_E[3] dyn1_dataIn_E[40]
+ dyn1_dataIn_E[41] dyn1_dataIn_E[42] dyn1_dataIn_E[43] dyn1_dataIn_E[44] dyn1_dataIn_E[45]
+ dyn1_dataIn_E[46] dyn1_dataIn_E[47] dyn1_dataIn_E[48] dyn1_dataIn_E[49] dyn1_dataIn_E[4]
+ dyn1_dataIn_E[50] dyn1_dataIn_E[51] dyn1_dataIn_E[52] dyn1_dataIn_E[53] dyn1_dataIn_E[54]
+ dyn1_dataIn_E[55] dyn1_dataIn_E[56] dyn1_dataIn_E[57] dyn1_dataIn_E[58] dyn1_dataIn_E[59]
+ dyn1_dataIn_E[5] dyn1_dataIn_E[60] dyn1_dataIn_E[61] dyn1_dataIn_E[62] dyn1_dataIn_E[63]
+ dyn1_dataIn_E[6] dyn1_dataIn_E[7] dyn1_dataIn_E[8] dyn1_dataIn_E[9] dyn1_dataIn_N[0]
+ dyn1_dataIn_N[10] dyn1_dataIn_N[11] dyn1_dataIn_N[12] dyn1_dataIn_N[13] dyn1_dataIn_N[14]
+ dyn1_dataIn_N[15] dyn1_dataIn_N[16] dyn1_dataIn_N[17] dyn1_dataIn_N[18] dyn1_dataIn_N[19]
+ dyn1_dataIn_N[1] dyn1_dataIn_N[20] dyn1_dataIn_N[21] dyn1_dataIn_N[22] dyn1_dataIn_N[23]
+ dyn1_dataIn_N[24] dyn1_dataIn_N[25] dyn1_dataIn_N[26] dyn1_dataIn_N[27] dyn1_dataIn_N[28]
+ dyn1_dataIn_N[29] dyn1_dataIn_N[2] dyn1_dataIn_N[30] dyn1_dataIn_N[31] dyn1_dataIn_N[32]
+ dyn1_dataIn_N[33] dyn1_dataIn_N[34] dyn1_dataIn_N[35] dyn1_dataIn_N[36] dyn1_dataIn_N[37]
+ dyn1_dataIn_N[38] dyn1_dataIn_N[39] dyn1_dataIn_N[3] dyn1_dataIn_N[40] dyn1_dataIn_N[41]
+ dyn1_dataIn_N[42] dyn1_dataIn_N[43] dyn1_dataIn_N[44] dyn1_dataIn_N[45] dyn1_dataIn_N[46]
+ dyn1_dataIn_N[47] dyn1_dataIn_N[48] dyn1_dataIn_N[49] dyn1_dataIn_N[4] dyn1_dataIn_N[50]
+ dyn1_dataIn_N[51] dyn1_dataIn_N[52] dyn1_dataIn_N[53] dyn1_dataIn_N[54] dyn1_dataIn_N[55]
+ dyn1_dataIn_N[56] dyn1_dataIn_N[57] dyn1_dataIn_N[58] dyn1_dataIn_N[59] dyn1_dataIn_N[5]
+ dyn1_dataIn_N[60] dyn1_dataIn_N[61] dyn1_dataIn_N[62] dyn1_dataIn_N[63] dyn1_dataIn_N[6]
+ dyn1_dataIn_N[7] dyn1_dataIn_N[8] dyn1_dataIn_N[9] dyn1_dataIn_S[0] dyn1_dataIn_S[10]
+ dyn1_dataIn_S[11] dyn1_dataIn_S[12] dyn1_dataIn_S[13] dyn1_dataIn_S[14] dyn1_dataIn_S[15]
+ dyn1_dataIn_S[16] dyn1_dataIn_S[17] dyn1_dataIn_S[18] dyn1_dataIn_S[19] dyn1_dataIn_S[1]
+ dyn1_dataIn_S[20] dyn1_dataIn_S[21] dyn1_dataIn_S[22] dyn1_dataIn_S[23] dyn1_dataIn_S[24]
+ dyn1_dataIn_S[25] dyn1_dataIn_S[26] dyn1_dataIn_S[27] dyn1_dataIn_S[28] dyn1_dataIn_S[29]
+ dyn1_dataIn_S[2] dyn1_dataIn_S[30] dyn1_dataIn_S[31] dyn1_dataIn_S[32] dyn1_dataIn_S[33]
+ dyn1_dataIn_S[34] dyn1_dataIn_S[35] dyn1_dataIn_S[36] dyn1_dataIn_S[37] dyn1_dataIn_S[38]
+ dyn1_dataIn_S[39] dyn1_dataIn_S[3] dyn1_dataIn_S[40] dyn1_dataIn_S[41] dyn1_dataIn_S[42]
+ dyn1_dataIn_S[43] dyn1_dataIn_S[44] dyn1_dataIn_S[45] dyn1_dataIn_S[46] dyn1_dataIn_S[47]
+ dyn1_dataIn_S[48] dyn1_dataIn_S[49] dyn1_dataIn_S[4] dyn1_dataIn_S[50] dyn1_dataIn_S[51]
+ dyn1_dataIn_S[52] dyn1_dataIn_S[53] dyn1_dataIn_S[54] dyn1_dataIn_S[55] dyn1_dataIn_S[56]
+ dyn1_dataIn_S[57] dyn1_dataIn_S[58] dyn1_dataIn_S[59] dyn1_dataIn_S[5] dyn1_dataIn_S[60]
+ dyn1_dataIn_S[61] dyn1_dataIn_S[62] dyn1_dataIn_S[63] dyn1_dataIn_S[6] dyn1_dataIn_S[7]
+ dyn1_dataIn_S[8] dyn1_dataIn_S[9] dyn1_dataIn_W[0] dyn1_dataIn_W[10] dyn1_dataIn_W[11]
+ dyn1_dataIn_W[12] dyn1_dataIn_W[13] dyn1_dataIn_W[14] dyn1_dataIn_W[15] dyn1_dataIn_W[16]
+ dyn1_dataIn_W[17] dyn1_dataIn_W[18] dyn1_dataIn_W[19] dyn1_dataIn_W[1] dyn1_dataIn_W[20]
+ dyn1_dataIn_W[21] dyn1_dataIn_W[22] dyn1_dataIn_W[23] dyn1_dataIn_W[24] dyn1_dataIn_W[25]
+ dyn1_dataIn_W[26] dyn1_dataIn_W[27] dyn1_dataIn_W[28] dyn1_dataIn_W[29] dyn1_dataIn_W[2]
+ dyn1_dataIn_W[30] dyn1_dataIn_W[31] dyn1_dataIn_W[32] dyn1_dataIn_W[33] dyn1_dataIn_W[34]
+ dyn1_dataIn_W[35] dyn1_dataIn_W[36] dyn1_dataIn_W[37] dyn1_dataIn_W[38] dyn1_dataIn_W[39]
+ dyn1_dataIn_W[3] dyn1_dataIn_W[40] dyn1_dataIn_W[41] dyn1_dataIn_W[42] dyn1_dataIn_W[43]
+ dyn1_dataIn_W[44] dyn1_dataIn_W[45] dyn1_dataIn_W[46] dyn1_dataIn_W[47] dyn1_dataIn_W[48]
+ dyn1_dataIn_W[49] dyn1_dataIn_W[4] dyn1_dataIn_W[50] dyn1_dataIn_W[51] dyn1_dataIn_W[52]
+ dyn1_dataIn_W[53] dyn1_dataIn_W[54] dyn1_dataIn_W[55] dyn1_dataIn_W[56] dyn1_dataIn_W[57]
+ dyn1_dataIn_W[58] dyn1_dataIn_W[59] dyn1_dataIn_W[5] dyn1_dataIn_W[60] dyn1_dataIn_W[61]
+ dyn1_dataIn_W[62] dyn1_dataIn_W[63] dyn1_dataIn_W[6] dyn1_dataIn_W[7] dyn1_dataIn_W[8]
+ dyn1_dataIn_W[9] dyn1_validIn_E dyn1_validIn_N dyn1_validIn_S dyn1_validIn_W dyn1_yummyOut_E
+ dyn1_yummyOut_N dyn1_yummyOut_S dyn1_yummyOut_W dyn2_dEo[0] dyn2_dEo[10] dyn2_dEo[11]
+ dyn2_dEo[12] dyn2_dEo[13] dyn2_dEo[14] dyn2_dEo[15] dyn2_dEo[16] dyn2_dEo[17] dyn2_dEo[18]
+ dyn2_dEo[19] dyn2_dEo[1] dyn2_dEo[20] dyn2_dEo[21] dyn2_dEo[22] dyn2_dEo[23] dyn2_dEo[24]
+ dyn2_dEo[25] dyn2_dEo[26] dyn2_dEo[27] dyn2_dEo[28] dyn2_dEo[29] dyn2_dEo[2] dyn2_dEo[30]
+ dyn2_dEo[31] dyn2_dEo[32] dyn2_dEo[33] dyn2_dEo[34] dyn2_dEo[35] dyn2_dEo[36] dyn2_dEo[37]
+ dyn2_dEo[38] dyn2_dEo[39] dyn2_dEo[3] dyn2_dEo[40] dyn2_dEo[41] dyn2_dEo[42] dyn2_dEo[43]
+ dyn2_dEo[44] dyn2_dEo[45] dyn2_dEo[46] dyn2_dEo[47] dyn2_dEo[48] dyn2_dEo[49] dyn2_dEo[4]
+ dyn2_dEo[50] dyn2_dEo[51] dyn2_dEo[52] dyn2_dEo[53] dyn2_dEo[54] dyn2_dEo[55] dyn2_dEo[56]
+ dyn2_dEo[57] dyn2_dEo[58] dyn2_dEo[59] dyn2_dEo[5] dyn2_dEo[60] dyn2_dEo[61] dyn2_dEo[62]
+ dyn2_dEo[63] dyn2_dEo[6] dyn2_dEo[7] dyn2_dEo[8] dyn2_dEo[9] dyn2_dEo_valid dyn2_dEo_yummy
+ dyn2_dNo[0] dyn2_dNo[10] dyn2_dNo[11] dyn2_dNo[12] dyn2_dNo[13] dyn2_dNo[14] dyn2_dNo[15]
+ dyn2_dNo[16] dyn2_dNo[17] dyn2_dNo[18] dyn2_dNo[19] dyn2_dNo[1] dyn2_dNo[20] dyn2_dNo[21]
+ dyn2_dNo[22] dyn2_dNo[23] dyn2_dNo[24] dyn2_dNo[25] dyn2_dNo[26] dyn2_dNo[27] dyn2_dNo[28]
+ dyn2_dNo[29] dyn2_dNo[2] dyn2_dNo[30] dyn2_dNo[31] dyn2_dNo[32] dyn2_dNo[33] dyn2_dNo[34]
+ dyn2_dNo[35] dyn2_dNo[36] dyn2_dNo[37] dyn2_dNo[38] dyn2_dNo[39] dyn2_dNo[3] dyn2_dNo[40]
+ dyn2_dNo[41] dyn2_dNo[42] dyn2_dNo[43] dyn2_dNo[44] dyn2_dNo[45] dyn2_dNo[46] dyn2_dNo[47]
+ dyn2_dNo[48] dyn2_dNo[49] dyn2_dNo[4] dyn2_dNo[50] dyn2_dNo[51] dyn2_dNo[52] dyn2_dNo[53]
+ dyn2_dNo[54] dyn2_dNo[55] dyn2_dNo[56] dyn2_dNo[57] dyn2_dNo[58] dyn2_dNo[59] dyn2_dNo[5]
+ dyn2_dNo[60] dyn2_dNo[61] dyn2_dNo[62] dyn2_dNo[63] dyn2_dNo[6] dyn2_dNo[7] dyn2_dNo[8]
+ dyn2_dNo[9] dyn2_dNo_valid dyn2_dNo_yummy dyn2_dSo[0] dyn2_dSo[10] dyn2_dSo[11]
+ dyn2_dSo[12] dyn2_dSo[13] dyn2_dSo[14] dyn2_dSo[15] dyn2_dSo[16] dyn2_dSo[17] dyn2_dSo[18]
+ dyn2_dSo[19] dyn2_dSo[1] dyn2_dSo[20] dyn2_dSo[21] dyn2_dSo[22] dyn2_dSo[23] dyn2_dSo[24]
+ dyn2_dSo[25] dyn2_dSo[26] dyn2_dSo[27] dyn2_dSo[28] dyn2_dSo[29] dyn2_dSo[2] dyn2_dSo[30]
+ dyn2_dSo[31] dyn2_dSo[32] dyn2_dSo[33] dyn2_dSo[34] dyn2_dSo[35] dyn2_dSo[36] dyn2_dSo[37]
+ dyn2_dSo[38] dyn2_dSo[39] dyn2_dSo[3] dyn2_dSo[40] dyn2_dSo[41] dyn2_dSo[42] dyn2_dSo[43]
+ dyn2_dSo[44] dyn2_dSo[45] dyn2_dSo[46] dyn2_dSo[47] dyn2_dSo[48] dyn2_dSo[49] dyn2_dSo[4]
+ dyn2_dSo[50] dyn2_dSo[51] dyn2_dSo[52] dyn2_dSo[53] dyn2_dSo[54] dyn2_dSo[55] dyn2_dSo[56]
+ dyn2_dSo[57] dyn2_dSo[58] dyn2_dSo[59] dyn2_dSo[5] dyn2_dSo[60] dyn2_dSo[61] dyn2_dSo[62]
+ dyn2_dSo[63] dyn2_dSo[6] dyn2_dSo[7] dyn2_dSo[8] dyn2_dSo[9] dyn2_dSo_valid dyn2_dSo_yummy
+ dyn2_dWo[0] dyn2_dWo[10] dyn2_dWo[11] dyn2_dWo[12] dyn2_dWo[13] dyn2_dWo[14] dyn2_dWo[15]
+ dyn2_dWo[16] dyn2_dWo[17] dyn2_dWo[18] dyn2_dWo[19] dyn2_dWo[1] dyn2_dWo[20] dyn2_dWo[21]
+ dyn2_dWo[22] dyn2_dWo[23] dyn2_dWo[24] dyn2_dWo[25] dyn2_dWo[26] dyn2_dWo[27] dyn2_dWo[28]
+ dyn2_dWo[29] dyn2_dWo[2] dyn2_dWo[30] dyn2_dWo[31] dyn2_dWo[32] dyn2_dWo[33] dyn2_dWo[34]
+ dyn2_dWo[35] dyn2_dWo[36] dyn2_dWo[37] dyn2_dWo[38] dyn2_dWo[39] dyn2_dWo[3] dyn2_dWo[40]
+ dyn2_dWo[41] dyn2_dWo[42] dyn2_dWo[43] dyn2_dWo[44] dyn2_dWo[45] dyn2_dWo[46] dyn2_dWo[47]
+ dyn2_dWo[48] dyn2_dWo[49] dyn2_dWo[4] dyn2_dWo[50] dyn2_dWo[51] dyn2_dWo[52] dyn2_dWo[53]
+ dyn2_dWo[54] dyn2_dWo[55] dyn2_dWo[56] dyn2_dWo[57] dyn2_dWo[58] dyn2_dWo[59] dyn2_dWo[5]
+ dyn2_dWo[60] dyn2_dWo[61] dyn2_dWo[62] dyn2_dWo[63] dyn2_dWo[6] dyn2_dWo[7] dyn2_dWo[8]
+ dyn2_dWo[9] dyn2_dWo_valid dyn2_dWo_yummy dyn2_dataIn_E[0] dyn2_dataIn_E[10] dyn2_dataIn_E[11]
+ dyn2_dataIn_E[12] dyn2_dataIn_E[13] dyn2_dataIn_E[14] dyn2_dataIn_E[15] dyn2_dataIn_E[16]
+ dyn2_dataIn_E[17] dyn2_dataIn_E[18] dyn2_dataIn_E[19] dyn2_dataIn_E[1] dyn2_dataIn_E[20]
+ dyn2_dataIn_E[21] dyn2_dataIn_E[22] dyn2_dataIn_E[23] dyn2_dataIn_E[24] dyn2_dataIn_E[25]
+ dyn2_dataIn_E[26] dyn2_dataIn_E[27] dyn2_dataIn_E[28] dyn2_dataIn_E[29] dyn2_dataIn_E[2]
+ dyn2_dataIn_E[30] dyn2_dataIn_E[31] dyn2_dataIn_E[32] dyn2_dataIn_E[33] dyn2_dataIn_E[34]
+ dyn2_dataIn_E[35] dyn2_dataIn_E[36] dyn2_dataIn_E[37] dyn2_dataIn_E[38] dyn2_dataIn_E[39]
+ dyn2_dataIn_E[3] dyn2_dataIn_E[40] dyn2_dataIn_E[41] dyn2_dataIn_E[42] dyn2_dataIn_E[43]
+ dyn2_dataIn_E[44] dyn2_dataIn_E[45] dyn2_dataIn_E[46] dyn2_dataIn_E[47] dyn2_dataIn_E[48]
+ dyn2_dataIn_E[49] dyn2_dataIn_E[4] dyn2_dataIn_E[50] dyn2_dataIn_E[51] dyn2_dataIn_E[52]